Version 4
SHEET 1 1808 680
WIRE 624 -32 592 -32
WIRE 528 0 528 -32
WIRE 528 0 464 0
WIRE 624 0 624 -32
WIRE 656 0 624 0
WIRE 528 48 528 0
WIRE 624 48 624 0
WIRE 624 48 608 48
WIRE 416 64 416 32
WIRE 688 160 624 160
WIRE 416 176 416 144
WIRE 496 176 416 176
WIRE 512 176 496 176
WIRE 640 192 624 192
WIRE 464 208 464 0
WIRE 464 208 256 208
WIRE 496 208 464 208
WIRE 192 224 128 224
WIRE 656 224 656 0
WIRE 656 224 624 224
WIRE 688 224 656 224
WIRE 272 240 256 240
WIRE 128 256 128 224
WIRE 416 272 416 176
WIRE 464 272 416 272
WIRE 128 384 128 336
WIRE 272 384 272 240
WIRE 272 384 128 384
WIRE 416 384 416 336
WIRE 416 384 272 384
WIRE 464 384 464 336
WIRE 464 384 416 384
WIRE 640 384 640 192
WIRE 640 384 464 384
WIRE 640 400 640 384
WIRE 832 400 832 384
FLAG 832 400 0
FLAG 688 224 Vout
IOPIN 688 224 Out
FLAG 464 208 V-
FLAG 832 304 V+
IOPIN 832 304 Out
FLAG 416 32 V+
IOPIN 416 32 In
FLAG 640 400 0
FLAG 688 160 V+
IOPIN 688 160 In
SYMBOL Misc/battery 832 288 R0
SYMATTR InstName V1
SYMATTR Value 5
SYMBOL res 624 32 R90
WINDOW 0 0 56 VBottom 2
WINDOW 3 33 53 VTop 2
SYMATTR InstName R1
SYMATTR Value 1000k
SYMBOL cap 592 -48 R90
WINDOW 0 0 32 VBottom 2
WINDOW 3 32 32 VTop 2
SYMATTR InstName C1
SYMATTR Value 0.18n
SYMBOL res 400 48 R0
SYMATTR InstName R2
SYMATTR Value 18k
SYMBOL diode 400 272 R0
WINDOW 3 -94 35 Left 2
SYMATTR Value 1N4148
SYMATTR InstName D1
SYMBOL cap 448 272 R0
SYMATTR InstName C2
SYMATTR Value 1µ
SYMBOL voltage 128 240 R0
WINDOW 0 -61 11 Left 2
WINDOW 123 24 118 Left 2
SYMATTR InstName Vpwr
SYMATTR Value2 AC 1u
SYMATTR Value 1µ
SYMBOL AutoGenerated/BPW21 224 224 R0
SYMATTR InstName U2
SYMBOL AutoGenerated/OPA140 560 192 R0
SYMATTR InstName U1
TEXT 800 -96 Left 2 !.INCLUDE opamp.sub\n# DC current sweep\n.DC Vpwr 0 3u 0.2u\n# Frequency response\n#.AC dec 50 1 1000
TEXT 512 -96 Left 2 ;2piRC=1/860Hz
TEXT -152 408 Left 2 ;Subcircuit U3 simulates photodiode BPW21. Input is in W (not V).
